[TITLE]
;;Project Title/Notes
;Result name:        test
;Export mode:        1D/2D
;Hydrology scenario: S/I
;DWF scenario: 		 Standard
;Default values:     true
;Advanced settings:  false

[OPTIONS]
;;Option             Value
FLOW_UNITS           CMS
INFILTRATION         CURVE_NUMBER
FLOW_ROUTING         DYNWAVE
LINK_OFFSETS         ELEVATION
MIN_SLOPE            0
ALLOW_PONDING        YES
SKIP_STEADY_STATE    NO

START_DATE           01/01/2017
START_TIME           00:00:00
REPORT_START_DATE    01/01/2017
REPORT_START_TIME    00:00:00
END_DATE             01/01/2017
END_TIME             03:00:00
SWEEP_START          01/01
SWEEP_END            12/31
DRY_DAYS             10
REPORT_STEP          00:05:00
WET_STEP             00:05:00
DRY_STEP             01:00:00
ROUTING_STEP         0:00:02 
RULE_STEP            00:00:00

INERTIAL_DAMPING     NONE
NORMAL_FLOW_LIMITED  BOTH
FORCE_MAIN_EQUATION  H-W
VARIABLE_STEP        0.75
LENGTHENING_STEP     1
MIN_SURFAREA         0
MAX_TRIALS           0
HEAD_TOLERANCE       0
SYS_FLOW_TOL         5
LAT_FLOW_TOL         5
MINIMUM_STEP         0.5
THREADS              1


[JUNCTIONS]
;;Name           Elevation  MaxDepth   InitDepth  SurDepth   Aponded   
;;-------------- ---------- ---------- ---------- ---------- ----------
;2 JUNCTION
100017           36.71      1.45       0.0000     0.0000     0.0000    
;2 JUNCTION
100021           31.040     1.9        0.0000     0.0000     0.0000    
;2 CIRC_MANHOLE
18832            43.090     1.600      0.0000     0.0000     0.0000    
;2 CIRC_MANHOLE
18833            41.910     1.620      0.0000     0.0000     0.0000    
;2 CIRC_MANHOLE
18834            40.900     1.620      0.0000     0.0000     0.0000    
;2 JUNCTION
18835            39.510     1.600      0.0000     0.0000     0.0000    
;2 CIRC_MANHOLE
18836            38.110     1.600      0.0000     0.0000     0.0000    
;2 CIRC_MANHOLE
18837            36.320     1.600      0.0000     0.0000     0.0000    
;2 CIRC_MANHOLE
18838            34.850     1.650      0.0000     0.0000     0.0000    
;2 CIRC_MANHOLE
18839            31.470     1.660      0.0000     0.0000     0.0000    
;2 CIRC_MANHOLE
18840            34.830     1.620      0.0000     0.0000     0.0000    
;2 CIRC_MANHOLE
18841            38.370     1.580      0.0000     0.0000     0.0000    
;2 CIRC_MANHOLE
18842            35.990     1.500      0.0000     0.0000     0.0000    
;2 CIRC_MANHOLE
18843            31.500     1.630      0.0000     0.0000     0.0000    
;2 CIRC_MANHOLE
18844            29.830     1.650      0.0000     0.0000     0.0000    
;2 NETINIT
18845            40.870     1.400      0.0000     0.0000     0.0000    
;2 NETINIT
18846            44.200     1.500      0.0000     0.0000     0.0000    
;2 CIRC_MANHOLE
18847            37.940     1.350      0.0000     0.0000     0.0000    
;2 CIRC_MANHOLE
18848            36.710     1.450      0.0000     0.0000     0.0000    
;2 CIRC_MANHOLE
18849            41.350     1.420      0.0000     0.0000     0.0000    
;2 CIRC_MANHOLE
18850            38.410     1.500      0.0000     0.0000     0.0000    
;2 CIRC_MANHOLE
18851            43.300     1.500      0.0000     0.0000     0.0000    
;2 CIRC_MANHOLE
18852            43.250     1.620      0.0000     0.0000     0.0000    
;2 CIRC_MANHOLE
18853            41.880     1.650      0.0000     0.0000     0.0000    
;2 CIRC_MANHOLE
18854            40.680     1.650      0.0000     0.0000     0.0000    
;2 CIRC_MANHOLE
18855            39.440     1.660      0.0000     0.0000     0.0000    
;2 CIRC_MANHOLE
18856            38.170     1.700      0.0000     0.0000     0.0000    
;2 CIRC_MANHOLE
18857            36.850     1.710      0.0000     0.0000     0.0000    
;2 CIRC_MANHOLE
18858            35.610     1.700      0.0000     0.0000     0.0000    
;2 CIRC_MANHOLE
18859            35.550     1.550      0.0000     0.0000     0.0000    
;2 JUNCTION
18860            40.670     1.720      0.0000     0.0000     0.0000    
;2 CIRC_MANHOLE
18861            36.580     1.600      0.0000     0.0000     0.0000    
;2 CIRC_MANHOLE
18862            38.530     1.830      0.0000     0.0000     0.0000    
;2 CIRC_MANHOLE
18863            39.780     1.700      0.0000     0.0000     0.0000    
;2 CIRC_MANHOLE
18864            35.970     1.650      0.0000     0.0000     0.0000    
;2 CIRC_MANHOLE
18865            36.340     1.610      0.0000     0.0000     0.0000    
;2 CIRC_MANHOLE
18866            40.440     1.600      0.0000     0.0000     0.0000    
;2 CIRC_MANHOLE
18867            36.800     1.610      0.0000     0.0000     0.0000    
;2 CHAMBER
18868            36.170     1.950      0.0000     0.0000     0.0000    
;2 CIRC_MANHOLE
18869            35.050     1.700      0.0000     0.0000     0.0000    
;2 CIRC_MANHOLE
18870            34.480     1.800      0.0000     0.0000     0.0000    
;2 CIRC_MANHOLE
18871            32.870     1.750      0.0000     0.0000     0.0000    
;2 CIRC_MANHOLE
18872            31.040     1.900      0.0000     0.0000     0.0000    
;2 CIRC_MANHOLE
18873            32.360     1.500      0.0000     0.0000     0.0000    
;2 CIRC_MANHOLE
18874            31.310     1.750      0.0000     0.0000     0.0000    
;2 CIRC_MANHOLE
18875            35.660     1.600      0.0000     0.0000     0.0000    
;2 JUNCTION
18876            35.020     2.000      0.0000     0.0000     0.0000    
;2 CIRC_MANHOLE
18877            34.010     1.750      0.0000     0.0000     0.0000    
;2 CIRC_MANHOLE
18878            32.360     1.900      0.0000     0.0000     0.0000    
;2 CIRC_MANHOLE
18879            30.460     1.720      0.0000     0.0000     0.0000    
;2 CIRC_MANHOLE
18880            29.290     1.950      0.0000     0.0000     0.0000    
;2 CIRC_MANHOLE
18881            30.700     1.850      0.0000     0.0000     0.0000    
;2 CIRC_MANHOLE
18882            29.470     1.760      0.0000     0.0000     0.0000    
;2 CIRC_MANHOLE
18884            27.270     2.010      0.0000     0.0000     0.0000    
;2 CIRC_MANHOLE
18885            26.670     2.250      0.0000     0.0000     0.0000    
;2 CIRC_MANHOLE
18886            27.690     1.900      0.0000     0.0000     0.0000    
;2 CIRC_MANHOLE
18887            29.590     2.000      0.0000     0.0000     0.0000    
;2 CIRC_MANHOLE
18911            36.730     1.720      0.0000     0.0000     0.0000    
;2 CIRC_MANHOLE
18912            34.050     1.680      0.0000     0.0000     0.0000    
;2 NETINIT
18913            29.830     1.750      0.0000     0.0000     0.0000    
;2 NETELEMENT
18960            32.800     1.600      0.0000     0.0000     0.0000    
;2 NETGULLY
18830            33.510     1.600      0.0000     0.0000     0         
;2 SEWER_STORAGE
18828VN1         26.470     3.500      0.0000     9999.0000  0.0000    
;2 SEWER_STORAGE
18828VN2         26.470     3.500      0.0000     0.0000     0.0000    

[OUTFALLS]
;;Name           Elevation  Type       Stage Data       Gated    Route To        
;;-------------- ---------- ---------- ---------------- -------- ----------------
;Outfall 18967
18967            27.830     FREE                        NO                       
;Outfall 100016
100016           34         FIXED      33               NO                       
;Outfall 18888
18888            25.680     NORMAL                      NO                       
;Outfall 1
1                30         FREE                        NO                       

[DIVIDERS]
;;Name           Elevation  Diverted Link    Type       Parameters
;;-------------- ---------- ---------------- ---------- ----------
;Divider example
18883            28.000     18958            CUTOFF     0          0          0          0          0         

[STORAGE]
;;Name           Elev.    MaxDepth   InitDepth  Shape      Curve Name/Params            N/A      Fevap    Psi      Ksat     IMD     
;;-------------- -------- ---------- ----------- ---------- ---------------------------- -------- --------          -------- --------
;Example storage
18828            26.470   3.500      0.0000     TABULAR    EBAR-02                      0.0000   0       

[CONDUITS]
;;Name           From Node        To Node          Length     Roughness  InOffset   OutOffset  InitFlow   MaxFlow   
;;-------------- ---------------- ---------------- ---------- ---------- ---------- ---------- ---------- ----------
;2 CC040 74
18889            18845            18847            49.491     0.014      40.870     37.940     0.0000     0.0000    
;2 CC040 74
18941            18854            18862            56.142     0.014      40.680     38.530     0.0000     0.0000    
;2 CC040 74
18929            18861            18865            48.729     0.012      36.580     36.340     0.0000     0.0000    
;2 CC080 74
18919            18868            18870            52.343     0.014      36.170     34.480     0.0000     0.0000    
;2 CC040 74
18957            18879            18882            55.902     0.014      30.460     29.470     0.0000     0.0000    
;2 CC040 74
18915            18852            18853            50.892     0.014      43.250     41.880     0.0000     0.0000    
;2 CC040 74
18937            18911            18876            48.969     0.014      36.730     35.120     0.0000     0.0000    
;2 CC060 74
20583            18844            18828            49.519     0.014      29.830     28.470     0.0000     0.0000    
;2 CC060 74
18944            18873            18874            68.461     0.014      32.360     31.360     0.0000     0.0000    
;2 CC315 74
18903            18850            18836            58.636     0.012      38.410     38.110     0.0000     0.0000    
;2 CC315 74
18959            18913            18880            47.609     0.012      29.830     29.440     0.0000     0.0000    
;2 CC040 74
18935            18856            18857            50.536     0.014      38.170     36.910     0.0000     0.0000    
;2 CC315 74
18909            18836            18840            55.948     0.012      38.110     34.830     0.0000     0.0000    
;2 CC040 74
18898            18832            18833            45.202     0.012      43.090     41.910     0.0000     0.0000    
;2 CC100 74
18923            18887            18883            54.826     0.014      29.590     28.000     0.0000     0.0000    
;2 CC040 74
18942            18865            18864            51.575     0.012      36.340     35.970     0.0000     0.0000    
;2 CC080 74
18920            18870            18871            56.268     0.014      34.480     32.870     0.0000     0.0000    
;2 CC040 74
18905            18837            18838            51.413     0.012      36.320     34.900     0.0000     0.0000    
;2 CC040 74
18931            18869            18870            63.094     0.012      35.050     34.580     0.0000     0.0000    
;2 CC315 74
18914            18846            18852            59.267     0.012      44.200     43.250     0.0000     0.0000    
;2 CC315 74
18910            18840            18843            59.389     0.012      34.830     31.530     0.0000     0.0000    
;2 CC040 74
18927            18852            18860            54.941     0.014      43.250     40.670     0.0000     0.0000    
;2 CC040 74
18928            18860            18861            54.264     0.014      40.670     36.580     0.0000     0.0000    
;2 CC060 74
18892            18842            18830            50.211     0.014      35.990     33.560     0.0000     0.0000    
;2 CC040 74
18916            18851            18866            56.065     0.014      43.300     40.440     0.0000     0.0000    
;2 CC040 74
18904            18836            18837            52.415     0.012      38.110     36.320     0.0000     0.0000    
;2 CC100 74
18924            18883            18884            48.251     0.014      28.000     27.280     0.0000     0.0000    
;2 CC315 74
18902            18849            18834            55.902     0.012      41.350     40.900     0.0000     0.0000    
;2 CC040 74
18951            18877            18878            51.561     0.014      34.010     32.510     0.0000     0.0000    
;2 CC060 74
18953            18881            18880            41.598     0.014      30.700     29.290     0.0000     0.0000    
;2 CC040 74
18947            18856            18911            49.409     0.014      38.170     36.750     0.0000     0.0000    
;2 CC040 74
18934            18855            18856            48.729     0.014      39.440     38.170     0.0000     0.0000    
;2 CC040 74
18930            18867            18861            45.442     0.014      36.800     36.580     0.0000     0.0000    
;2 EG150 74
18926            18885            18888            41.796     0.014      26.670     25.680     0.0000     0.0000    
;2 CC060 0
100018           100017           100016           18.136     0.014      0.0000     0.0000     0          0         
;2 CC060 74
18952            18878            18881            45.722     0.014      32.360     30.700     0.0000     0.0000    
;2 CC315 74
18906            18859            18838            60.350     0.012      35.550     34.900     0.0000     0.0000    
;2 CC040 0
100023           100021           1                18.538     0.014      0.0000     0.0000     0          0         
;2 CC315 74
18938            18860            18863            50.452     0.012      40.670     39.780     0.0000     0.0000    
;2 PP020 74
18966            18828VN1         18858            210.619    0.011      26.420     36.010     0.0000     0.0000    
;2 CC100 74
18925            18884            18885            52.826     0.014      27.270     26.820     0.0000     0.0000    
;2 CC060 74
18895            18843            18844            53.657     0.014      31.500     29.830     0.0000     0.0000    
;2 CC060 74
18945            18874            18872            48.447     0.014      31.310     31.090     0.0000     0.0000    
;2 CC060 74
18955            18886            18885            59.347     0.014      27.690     26.820     0.0000     0.0000    
;2 CC315 74
18893            18841            18842            80.786     0.012      38.370     36.140     0.0000     0.0000    
;2 CC040 74
18907            18838            18839            57.906     0.012      34.850     31.530     0.0000     0.0000    
;2 CC040 74
18962            18876            18960            40.633     0.014      35.020     32.900     0.0000     0.0000    
;2 CC040 74
18891            18848            18842            20.200     0.014      36.710     35.990     0.0000     0.0000    
;2 CC060 74
18949            18912            18878            44.323     0.014      34.050     32.410     0.0000     0.0000    
;2 CC040 74
18979            18864            18875            49.524     0.012      35.970     35.660     0.0000     0.0000    
;2 CC040 74
18890            18847            18848            42.589     0.014      37.940     36.710     0.0000     0.0000    
;2 CC040 74
18918            18867            18868            72.852     0.014      36.800     36.520     0.0000     0.0000    
;2 CC040 74
18901            18835            18836            48.572     0.012      39.510     38.110     0.0000     0.0000    
;2 CC040 74
18899            18833            18834            42.438     0.012      41.910     40.900     0.0000     0.0000    
;2 CC080 74
18969            18828VN2         18967            30.697     0.014      29.000     27.930     0.0000     0.0000    
;2 CC040 74
18932            18853            18854            47.850     0.014      41.880     40.680     0.0000     0.0000    
;2 CC040 74
18950            18876            18877            50.161     0.014      35.020     34.010     0.0000     0.0000    
;2 CC060 74
18954            18880            18886            59.066     0.014      29.290     27.690     0.0000     0.0000    
;2 CC080 74
18921            18871            18872            55.853     0.014      32.870     31.190     0.0000     0.0000    
;2 CC040 74
18940            18862            18864            53.539     0.014      38.530     35.970     0.0000     0.0000    
;2 CC040 74
18900            18834            18835            49.971     0.012      40.900     39.510     0.0000     0.0000    
;2 CC040 74
18958            18882            18883            55.902     0.014      29.470     28.150     0.0000     0.0000    
;2 CC060 74
18894            18830            18843            47.967     0.014      33.510     31.500     0.0000     0.0000    
;2 CC040 74
18961            18960            18879            38.631     0.014      32.800     30.460     0.0000     0.0000    
;2 CC060 74
18948            18858            18912            44.281     0.014      35.610     34.050     0.0000     0.0000    
;2 CC315 74
18939            18863            18862            48.488     0.012      39.780     38.530     0.0000     0.0000    
;2 CC040 74
18946            18875            18876            51.329     0.012      35.660     35.270     0.0000     0.0000    
;2 CC040 74
18933            18854            18855            51.976     0.014      40.680     39.440     0.0000     0.0000    
;2 CC040 74
18917            18866            18867            56.873     0.014      40.440     36.800     0.0000     0.0000    
;2 CC040 74
20576            18839            18828            55.138     0.012      31.470     28.520     0.0000     0.0000    
;2 CC040 74
18936            18857            18858            51.454     0.014      36.850     35.610     0.0000     0.0000    
;2 CC100 74
18922            18872            18887            50.040     0.014      31.040     29.590     0.0000     0.0000    

[PUMPS]
;;Name           From Node        To Node          Pump Curve       Status   Sartup Shutoff 
;;-------------- ---------------- ---------------- ---------------- ------ -------- --------
;Example pump
18828PU1         18828            18828VN1         PUMP-02          ON       2.0000   0.4000  

[ORIFICES]
;;Name           From Node        To Node          Type         Offset     Qcoeff     Gated    CloseTime 
;;-------------- ---------------- ---------------- ------------ ---------- ---------- -------- ----------
;Example orifice
100020           18848            100017           SIDE         37         1.5        NO       0         

[WEIRS]
;;Name           From Node        To Node          Type         CrestHt    Qcoeff     Gated    EndCon   EndCoeff   Surcharge  RoadWidth  RoadSurf   Coeff. Curve
;;-------------- ---------------- ---------------- ------------ ---------- ---------- -------- -------- ---------- ---------- ---------- ---------- ----------------
;Example weir
18828WE1         18828            18828VN2         TRANSVERSE   17.1500    1.5000     NO       0        0          YES       

[OUTLETS]
;;Name           From Node        To Node          Offset     Type            QTable/Qcoeff    Qexpon     Gated   
;;-------------- ---------------- ---------------- ---------- --------------- ---------------- ---------- --------
;Example outlet
100024           18872            100021           *          TABULAR/HEAD    OUTLET_DEMO                 NO      

[XSECTIONS]
;;Link           Shape        Geom1            Geom2      Geom3      Geom4      Barrels    Culvert   
;;-------------- ------------ ---------------- ---------- ---------- ---------- ---------- ----------
18889            CIRCULAR     0.4000           0.0000     0.0000     0.0000     1                    
18941            CIRCULAR     0.4000           0.0000     0.0000     0.0000     1                    
18929            CIRCULAR     0.4000           0.0000     0.0000     0.0000     1                    
18919            CIRCULAR     0.8000           0.0000     0.0000     0.0000     1                    
18957            CIRCULAR     0.4000           0.0000     0.0000     0.0000     1                    
18915            CIRCULAR     0.4000           0.0000     0.0000     0.0000     1                    
18937            CIRCULAR     0.4000           0.0000     0.0000     0.0000     1                    
20583            CIRCULAR     0.6000           0.0000     0.0000     0.0000     1                    
18944            CIRCULAR     0.6000           0.0000     0.0000     0.0000     1                    
18903            CUSTOM       0.3150           SHAPE_DEMO 0          0          1                    
18959            CIRCULAR     0.3150           0.0000     0.0000     0.0000     1                    
18935            CIRCULAR     0.4000           0.0000     0.0000     0.0000     1                    
18909            CIRCULAR     0.3150           0.0000     0.0000     0.0000     1                    
18898            CIRCULAR     0.4000           0.0000     0.0000     0.0000     1                    
18923            CIRCULAR     1.0000           0.0000     0.0000     0.0000     1                    
18942            CIRCULAR     0.4000           0.0000     0.0000     0.0000     1                    
18920            CIRCULAR     0.8000           0.0000     0.0000     0.0000     1                    
18905            CIRCULAR     0.4000           0.0000     0.0000     0.0000     1                    
18931            CIRCULAR     0.4000           0.0000     0.0000     0.0000     1                    
18914            CIRCULAR     0.3150           0.0000     0.0000     0.0000     1                    
18910            CIRCULAR     0.3150           0.0000     0.0000     0.0000     1                    
18927            CIRCULAR     0.4000           0.0000     0.0000     0.0000     1                    
18928            CIRCULAR     0.4000           0.0000     0.0000     0.0000     1                    
18892            CIRCULAR     0.6000           0.0000     0.0000     0.0000     1                    
18916            CIRCULAR     0.4000           0.0000     0.0000     0.0000     1                    
18904            CIRCULAR     0.4000           0.0000     0.0000     0.0000     1                    
18924            CIRCULAR     1.0000           0.0000     0.0000     0.0000     1                    
18902            IRREGULAR    TRANSECT-DEMO    0          0          0          1                    
18951            CIRCULAR     0.4000           0.0000     0.0000     0.0000     1                    
18953            CIRCULAR     0.6000           0.0000     0.0000     0.0000     1                    
18947            CIRCULAR     0.4000           0.0000     0.0000     0.0000     1                    
18934            CIRCULAR     0.4000           0.0000     0.0000     0.0000     1                    
18930            CIRCULAR     0.4000           0.0000     0.0000     0.0000     1                    
18926            EGG          1.5000           1.0000     0.0000     0.0000     1                    
100018           CIRCULAR     0.6000           0.0000     0.0000     0.0000     1                    
18952            CIRCULAR     0.6000           0.0000     0.0000     0.0000     1                    
18906            CIRCULAR     0.3150           0.0000     0.0000     0.0000     1                    
100023           CIRCULAR     0.4000           0.0000     0.0000     0.0000     1                    
18938            CIRCULAR     0.3150           0.0000     0.0000     0.0000     1                    
18966            FORCE_MAIN   0.1800           100.0000   0.0000     0.0000     1                    
18925            CIRCULAR     1.0000           0.0000     0.0000     0.0000     1                    
18895            CIRCULAR     0.6000           0.0000     0.0000     0.0000     1                    
18945            CIRCULAR     0.6000           0.0000     0.0000     0.0000     1                    
18955            CIRCULAR     0.6000           0.0000     0.0000     0.0000     1                    
18893            CIRCULAR     0.3150           0.0000     0.0000     0.0000     1                    
18907            CIRCULAR     0.4000           0.0000     0.0000     0.0000     1                    
18962            CIRCULAR     0.4000           0.0000     0.0000     0.0000     1                    
18891            CIRCULAR     0.4000           0.0000     0.0000     0.0000     1                    
18949            CIRCULAR     0.6000           0.0000     0.0000     0.0000     1                    
18979            CIRCULAR     0.4000           0.0000     0.0000     0.0000     1                    
18890            CIRCULAR     0.4000           0.0000     0.0000     0.0000     1                    
18918            CIRCULAR     0.4000           0.0000     0.0000     0.0000     1                    
18901            CIRCULAR     0.4000           0.0000     0.0000     0.0000     1                    
18899            CIRCULAR     0.4000           0.0000     0.0000     0.0000     1                    
18969            CIRCULAR     0.8000           0.0000     0.0000     0.0000     1                    
18932            CIRCULAR     0.4000           0.0000     0.0000     0.0000     1                    
18950            CIRCULAR     0.4000           0.0000     0.0000     0.0000     1                    
18954            CIRCULAR     0.6000           0.0000     0.0000     0.0000     1                    
18921            CIRCULAR     0.8000           0.0000     0.0000     0.0000     1                    
18940            CIRCULAR     0.4000           0.0000     0.0000     0.0000     1                    
18900            CIRCULAR     0.4000           0.0000     0.0000     0.0000     1                    
18958            CIRCULAR     0.4000           0.0000     0.0000     0.0000     1                    
18894            CIRCULAR     0.6000           0.0000     0.0000     0.0000     1                    
18961            CIRCULAR     0.4000           0.0000     0.0000     0.0000     1                    
18948            CIRCULAR     0.6000           0.0000     0.0000     0.0000     1                    
18939            CIRCULAR     0.3150           0.0000     0.0000     0.0000     1                    
18946            CIRCULAR     0.4000           0.0000     0.0000     0.0000     1                    
18933            CIRCULAR     0.4000           0.0000     0.0000     0.0000     1                    
18917            CIRCULAR     0.4000           0.0000     0.0000     0.0000     1                    
20576            CIRCULAR     0.4000           0.0000     0.0000     0.0000     1                    
18936            CIRCULAR     0.4000           0.0000     0.0000     0.0000     1                    
18922            CIRCULAR     1.0000           0.0000     0.0000     0.0000     1                    
100020           RECT_CLOSED  2.0000           2.0000     0          0
18828WE1         RECT_OPEN    1.0000           1.0000     0.0000     0.0000    

[TRANSECTS]
;;Transect Data in HEC-2 format
;
;Demo value for transect
NC 0.01     0.01     0.01    
X1 TRANSECT-DEMO     4        0.0      0.0      0.0      0.0      0.0      0.0      0.0     
GR 0.8      0        0.02     2        0.02     6        0.8      8       

[CONTROLS]
;;text
;;----------
RULE EXAMPLE
IF NODE 18828 DEPTH > 1
THEN PUMP 18828PU1 STATUS = ON
ELSE PUMP 18828PU1 STATUS = OFF



[INFLOWS]
;;Node           Constituent      Time Series      Type     Mfactor  Sfactor  Baseline Pattern
;;-------------- ---------------- ---------------- -------- -------- -------- -------- --------
18863            FLOW             INFLOW-5m        FLOW     1.0      1.0      1       

[DWF]
;;Node           Constituent      Baseline   Patterns  
;;-------------- ---------------- ---------- ----------
100017           FLOW             0.0001     "MONTH" "DAY" "HOUR" "WEEKEND"
100021           FLOW             0.0001     "MONTH" "DAY" "HOUR" "WEEKEND"
18832            FLOW             0.0001     "MONTH" "DAY" "HOUR" "WEEKEND"
18833            FLOW             0.0001     "MONTH" "DAY" "HOUR" "WEEKEND"
18834            FLOW             0.0001     "MONTH" "DAY" "HOUR" "WEEKEND"
18835            FLOW             0.0001     "MONTH" "DAY" "HOUR" "WEEKEND"
18836            FLOW             0.0001     "MONTH" "DAY" "HOUR" "WEEKEND"
18837            FLOW             0.0001     "MONTH" "DAY" "HOUR" "WEEKEND"
18838            FLOW             0.0001     "MONTH" "DAY" "HOUR" "WEEKEND"
18839            FLOW             0.0001     "MONTH" "DAY" "HOUR" "WEEKEND"
18840            FLOW             0.0001     "MONTH" "DAY" "HOUR" "WEEKEND"
18841            FLOW             0.0001     "MONTH" "DAY" "HOUR" "WEEKEND"
18842            FLOW             0.0001     "MONTH" "DAY" "HOUR" "WEEKEND"
18843            FLOW             0.0001     "MONTH" "DAY" "HOUR" "WEEKEND"
18844            FLOW             0.0001     "MONTH" "DAY" "HOUR" "WEEKEND"
18845            FLOW             0.0001     "MONTH" "DAY" "HOUR" "WEEKEND"
18846            FLOW             0.0001     "MONTH" "DAY" "HOUR" "WEEKEND"
18847            FLOW             0.0001     "MONTH" "DAY" "HOUR" "WEEKEND"
18848            FLOW             0.0001     "MONTH" "DAY" "HOUR" "WEEKEND"
18849            FLOW             0.0001     "MONTH" "DAY" "HOUR" "WEEKEND"
18850            FLOW             0.0001     "MONTH" "DAY" "HOUR" "WEEKEND"
18851            FLOW             0.0001     "MONTH" "DAY" "HOUR" "WEEKEND"
18852            FLOW             0.0001     "MONTH" "DAY" "HOUR" "WEEKEND"
18853            FLOW             0.0001     "MONTH" "DAY" "HOUR" "WEEKEND"
18854            FLOW             0.0001     "MONTH" "DAY" "HOUR" "WEEKEND"
18855            FLOW             0.0001     "MONTH" "DAY" "HOUR" "WEEKEND"
18856            FLOW             0.0001     "MONTH" "DAY" "HOUR" "WEEKEND"
18857            FLOW             0.0002     "MONTH" "DAY" "HOUR" "WEEKEND"
18858            FLOW             0.0002     "MONTH" "DAY" "HOUR" "WEEKEND"
18859            FLOW             0.0002     "MONTH" "DAY" "HOUR" "WEEKEND"