[TITLE]
;;0              
;;-----------------
test           

[OPTIONS]
;;Option         Value          
;;--------------------------------
    ROUTING_STEP    00:00:02       
    START_DATE      01/01/2017     
  REPORT_START_DATE 01/01/2017     
    END_DATE        01/01/2017     
    REPORT_STEP     00:05:00       
    START_TIME      00:00:00       
    END_TIME        01:30:00       
  REPORT_START_TIME 00:00:00       
  SKIP_STEADY_STATE NO             
    ALLOW_PONDING   YES            
    MIN_SLOPE       0.00           
    FLOW_UNITS      CMS            
    FLOW_ROUTING    DYNWAVE        
    LINK_OFFSETS    ELEVATION      
 IGNORE_GROUNDWATER NO             
    IGNORE_RAINFALL NO             
    IGNORE_ROUTING  NO             
    IGNORE_SNOWMELT NO             
    IGNORE_QUALITY  NO             
    TEMPDIR                     NaN
FORCE_MAIN_EQUATION H-W            
   INERTIAL_DAMPING NONE           
    LAT_FLOW_TOL    5              
   LENGTHENING_STEP 1              
    WET_STEP        00:05:00       
    SWEEP_START     01/01          
    HEAD_TOLERANCE  0.000          
    RULE_STEP       00:00:00       
    VARIABLE_STEP   0.75           
NORMAL_FLOW_LIMITED BOTH           
    MIN_SURFAREA    0.00           
    DRY_DAYS        10             
    DRY_STEP        01:00:00       
    SWEEP_END       12/31          
    MAX_TRIALS      0              
    SYS_FLOW_TOL    5              
    THREADS         1              
    MINIMUM_STEP    0.5            

[JUNCTIONS]
;;Name           Elevation      MaxDepth       InitDepth      SurDepth       Aponded        
;;--------------------------------------------------------------------------------------------
J1              44.689          1.6             0.0             0.0             0.0            
J2              43.529          1.62            0.0             0.0             0.0            
J3              42.52           1.62            0.0             0.0             0.0            
J4              41.11           1.6             0.0             0.0             0.0            
J5              39.709          1.6             0.0             0.0             0.0            
J6              37.919          1.6             0.0             0.0             0.0            
J7              36.5            1.65            0.0             0.0             0.0            
J8              33.13           1.66            0.0             0.0             0.0            
J9              36.45           1.62            0.0             0.0             0.0            
J10             39.95           1.58            0.0             0.0             0.0            
J11             37.49           1.5             0.0             0.0             0.0            
J12             33.13           1.63            0.0             0.0             0.0            
J13             31.48           1.65            0.0             0.0             0.0            
J14             42.27           1.4             0.0             0.0             0.0            
J15             45.7            1.5             0.0             0.0             0.0            
J16             39.29           1.35            0.0             0.0             0.0            
J17             38.16           1.45            0.0             0.0             0.0            
J18             42.77           1.42            0.0             0.0             0.0            
J19             39.91           1.5             0.0             0.0             0.0            
J20             44.799          1.5             0.0             0.0             0.0            
J21             44.869          1.62            0.0             0.0             0.0            
J22             43.529          1.65            0.0             0.0             0.0            
J23             42.33           1.65            0.0             0.0             0.0            
J24             41.099          1.66            0.0             0.0             0.0            
J25             39.869          1.7             0.0             0.0             0.0            
J26             38.56           1.71            0.0             0.0             0.0            
J27             37.31           1.7             0.0             0.0             0.0            
J28             37.099          1.55            0.0             0.0             0.0            
J29             42.389          1.72            0.0             0.0             0.0            
J30             38.18           1.6             0.0             0.0             0.0            
J31             40.36           1.83            0.0             0.0             0.0            
J32             41.48           1.7             0.0             0.0             0.0            
J33             37.619          1.65            0.0             0.0             0.0            
J34             37.95           1.61            0.0             0.0             0.0            
J35             42.04           1.6             0.0             0.0             0.0            
J36             38.41           1.61            0.0             0.0             0.0            
J37             38.119          1.95            0.0             0.0             0.0            
J38             34.32           1.7             0.0             0.0             0.0            
J39             36.279          1.8             0.0             0.0             0.0            
J40             34.619          1.75            0.0             0.0             0.0            
J41             32.939          1.9             0.0             0.0             0.0            
J42             35.81           1.5             0.0             0.0             0.0            
J43             33.06           1.75            0.0             0.0             0.0            
J44             37.29           1.6             0.0             0.0             0.0            
J45             37.02           2.0             0.0             0.0             0.0            
J46             35.759          1.75            0.0             0.0             0.0            
J47             34.259          1.9             0.0             0.0             0.0            
J48             32.18           1.72            0.0             0.0             0.0            
J49             31.24           1.95            0.0             0.0             0.0            
J50             32.549          1.85            0.0             0.0             0.0            
J51             31.23           1.76            0.0             0.0             0.0            
J52             29.28           2.01            0.0             0.0             0.0            
J53             28.92           2.25            0.0             0.0             0.0            
J54             29.59           1.9             0.0             0.0             0.0            
J55             31.59           2.0             0.0             0.0             0.0            
J56             38.45           1.72            0.0             0.0             0.0            
J57             35.73           1.68            0.0             0.0             0.0            
J58             31.58           1.75            0.0             0.0             0.0            
J59             34.4            1.6             0.0             0.0             0.0            
J60             29.86           3.55            0.0             0.0             0.0            
J61             29.98           3.55            0.0             0.0             0.0            
J62             30.0            3.45            0.0             0.0             0.0            
J63             30.059          3.45            0.0             0.0             0.0            
J64             38.18           1.45            0.0             0.0             0.0            
J65             32.939          1.9             0.0             0.0             0.0            
J66             33.51           1.6             0.0             0.0             0.0            

[OUTFALLS]
O1    27.83    FREE        NO    
O2    25.68    NORMAL        NO    
O3    34.0    FIXED    33.0    NO    
O4    30.0    FREE        NO    

[DIVIDERS]
D1    28.0    C55    CUTOFF        0.0            0.0    0.0    0.0    0.0

[STORAGE]
;;Name           Elevation      MaxDepth       InitDepth      Type           Shape1         Shape2         Shape3         SurDepth       Fevap          Psi            Ksat           IMD            
;;-----------------------------------------------------------------------------------------------------------------------------------------------------------------------------------------------------
S1              26.47           3.5             0.0             TABULAR         EBAR-02                                         0.0             0.0                                                            

[CONDUITS]
;;Name           FromNode       ToNode         Length         Roughness      InOffset       OutOffset      InitFlow       MaxFlow        
;;-----------------------------------------------------------------------------------------------------------------------------------------
C1              J35             J36             56.872          0.012           1.6             1.61            0.0             0.0            
C2              J42             J43             68.461          0.012           1.5             1.7             0.0             0.0            
C3              J33             J44             49.524          0.012           1.65            1.6             0.0             0.0            
C4              J34             J33             51.574          0.012           1.61            1.65            0.0             0.0            
C5              J31             J33             53.539          0.012           1.83            1.65            0.0             0.0            
C6              J25             J56             49.409          0.012           1.7             1.7             0.0             0.0            
C7              J48             J51             55.901          0.012           1.72            1.76            0.0             0.0            
C8              J59             J48             38.63           0.012           1.6             1.72            0.0             0.0            
C9              J45             J46             50.1609         0.012           2.0             1.75            0.0             0.0            
C10             J30             J34             48.728          0.012           1.6             1.61            0.0             0.0            
C11             J29             J32             50.451          0.012           1.72            1.7             0.0             0.0            
C12             J32             J31             48.488          0.012           1.7             1.83            0.0             0.0            
C13             J23             J31             56.141          0.012           1.65            1.83            0.0             0.0            
C14             J36             J30             45.442          0.012           1.61            1.6             0.0             0.0            
C15             J29             J30             54.264          0.012           1.72            1.6             0.0             0.0            
C16             J20             J35             56.064          0.012           1.5             1.6             0.0             0.0            
C17             J25             J26             50.536          0.012           1.7             1.65            0.0             0.0            
C18             J23             J24             51.975          0.012           1.65            1.66            0.0             0.0            
C19             J21             J22             50.891          0.012           1.62            1.65            0.0             0.0            
C20             J24             J25             48.728          0.012           1.66            1.7             0.0             0.0            
C21             J15             J21             59.267          0.012           1.5             1.62            0.0             0.0            
C22             J22             J23             47.849          0.012           1.65            1.65            0.0             0.0            
C23             J5              J6              52.414          0.012           1.6             1.6             0.0             0.0            
C24             J19             J5              58.636          0.012           1.5             1.6             0.0             0.0            
C25             J4              J5              48.572          0.012           1.6             1.6             0.0             0.0            
C26             J28             J7              60.349          0.012           1.55            1.6             0.0             0.0            
C27             J6              J7              51.412          0.012           1.6             1.6             0.0             0.0            
C28             J7              J8              57.906          0.012           1.65            1.6             0.0             0.0            
C29             J9              J12             59.388          0.012           1.62            1.6             0.0             0.0            
C30             J66             J12             47.966          0.012           1.6             1.63            0.0             0.0            
C31             J5              J9              55.948          0.012           1.6             1.62            0.0             0.0            
C32             J12             J13             53.657          0.012           1.63            1.65            0.0             0.0            
C33             J16             J17             42.589          0.012           1.35            1.45            0.0             0.0            
C34             J17             J11             20.2            0.012           1.45            1.5             0.0             0.0            
C35             J10             J11             80.785          0.012           1.58            1.35            0.0             0.0            
C36             J1              J2              45.201          0.012           1.6             1.62            0.0             0.0            
C37             J18             J3              55.901          0.012           1.42            1.62            0.0             0.0            
C38             J2              J3              42.438          0.012           1.62            1.62            0.0             0.0            
C39             J14             J16             49.49           0.012           1.4             1.35            0.0             0.0            
C40             J53             O1              41.795          0.012           2.25            1.95            0.0             0.0            
C41             J27             J57             44.28           0.012           1.7             1.68            0.0             0.0            
C42             J49             J54             59.066          0.012           1.95            1.9             0.0             0.0            
C43             J50             J49             41.597          0.012           1.85            1.95            0.0             0.0            
C44             J58             J49             47.608          0.012           1.75            1.8             0.0             0.0            
C45             J47             J50             45.72           0.012           1.9             1.85            0.0             0.0            
C46             J46             J47             51.561          0.012           1.75            1.75            0.0             0.0            
C47             J57             J47             44.322          0.012           1.68            1.85            0.0             0.0            
C48             J26             J27             51.453          0.012           1.71            1.7             0.0             0.0            
C49             J60             J27             210.619         0.012           3.55            1.3             0.0             0.0            
C50             J37             J39             52.343          0.012           1.95            1.8             0.0             0.0            
C51             J61             O2              30.696          0.012           0.97            2.4             0.0             0.0            
C52             J54             J53             59.347          0.012           1.9             2.1             0.0             0.0            
C53             J52             J53             52.826          0.012           2.01            2.1             0.0             0.0            
C54             J41             J55             50.04           0.012           1.9             2.0             0.0             0.0            
C55             D1              J52             48.25           0.012           2.0             2.0             0.0             0.0            
C56             J43             J41             48.447          0.012           1.75            1.85            0.0             0.0            
C57             J40             J41             55.852          0.012           1.75            1.75            0.0             0.0            
C58             J39             J40             56.267          0.012           1.8             1.75            0.0             0.0            
C59             J51             D1              55.901          0.012           1.76            1.85            0.0             0.0            
C60             J55             D1              54.826          0.012           2.0             2.0             0.0             0.0            
C61             J45             J59             40.633          0.012           2.0             1.5             0.0             0.0            
C62             J3              J4              49.971          0.012           1.62            1.6             0.0             0.0            
C63             J44             J45             51.328          0.012           1.6             1.75            0.0             0.0            
C64             J56             J45             48.968          0.012           1.72            1.9             0.0             0.0            
C65             J21             J29             54.941          0.012           1.62            1.72            0.0             0.0            
C66             J11             J66             50.211          0.012           1.5             1.55            0.0             0.0            
C67             J36             J37             72.851          0.012           1.61            1.6             0.0             0.0            
C68             J13             J63             49.5192         0.012           1.65            1.5             0.0             0.0            
C69             J8              J62             55.138          0.012           1.66            1.45            0.0             0.0            
C70             J62             S1              1.765           0.012           1.76            1.85            0.0             0.0            
C71             J63             S1              1.976           0.012           1.6             1.6             0.0             0.0            
C72             J38             J39             63.094          0.012           1.83            1.65            0.0             0.0            
C73             J64             O3              4.58            0.012           0.6             0.6             0.0             0.0            
C74             J65             O4              5.177           0.012           0.4             0.4             0.0             0.0            

[PUMPS]
;;Name           FromNode       ToNode         PumpCurve      Status         Startup        Shutoff        
;;-----------------------------------------------------------------------------------------------------------
P1              S1              J60             PUMP-02         ON              2.0             0.4            

[WEIRS]
;;Name           FromNode       ToNode         Type           CrestHeigh     Qcoeff         FlapGate       EndContrac     EndCoeff       Surcharge      RoadWidth      RoadSurf       CoeffCurve     
;;-----------------------------------------------------------------------------------------------------------------------------------------------------------------------------------------------------
W1              S1              J61             TRANSVERSE      17.15           1.5             NO              0               0.0             YES             *               *                              

[ORIFICES]
;;Name           FromNode       ToNode         Type           InOffset       Qcoeff         FlapGate       CloseTime      
;;--------------------------------------------------------------------------------------------------------------------------
R1              J17             J64             SIDE            37.0            1.5             NO              0.0            

[OUTLETS]
;;Name           FromNode       ToNode         InOffset       RateCurve      QCurve         Qexpon         FlapGate       
;;--------------------------------------------------------------------------------------------------------------------------
T1              J41             J65             1.0             TABULAR/DEPTH   OUTLET_DEMO                     NO             

[XSECTIONS]
C1   CIRCULAR    0.315    0.0    0.0    0.0    1    
C2   CUSTOM    0.315    SHAPE_DEMO    0.0    0.0    1    
C3   CIRCULAR    0.6    0.0    0.0    0.0    1    
C4   CIRCULAR    0.6    0.0    0.0    0.0    1    
C5   CIRCULAR    0.6    0.0    0.0    0.0    1    
C6   CIRCULAR    0.6    0.0    0.0    0.0    1    
C7   CIRCULAR    0.6    0.0    0.0    0.0    1    
C8   CIRCULAR    0.6    0.0    0.0    0.0    1    
C9   CIRCULAR    0.6    0.0    0.0    0.0    1    
C10   CIRCULAR    0.6    0.0    0.0    0.0    1    
C11   CIRCULAR    0.6    0.0    0.0    0.0    1    
C12   CIRCULAR    0.6    0.0    0.0    0.0    1    
C13   CIRCULAR    0.315    0.0    0.0    0.0    1    
C14   CIRCULAR    0.6    0.0    0.0    0.0    1    
C15   CIRCULAR    0.6    0.0    0.0    0.0    1    
C16   CIRCULAR    0.315    0.0    0.0    0.0    1    
C17   CIRCULAR    0.4    0.0    0.0    0.0    1    
C18   CIRCULAR    1.0    0.0    0.0    0.0    1    
C19   CIRCULAR    1.0    0.0    0.0    0.0    1    
C20   CIRCULAR    2.0    0.0    0.0    0.0    1    
C21   RECT_CLOSED    2.0    2.0    0.0    0.0    1    
C22   RECT_OPEN    1.0    1.0    0.0    0.0    1    
C23   CIRCULAR    0.4    0.0    0.0    0.0    1    
C24   CIRCULAR    0.4    0.0    0.0    0.0    1    
C25   CIRCULAR    0.315    0.0    0.0    0.0    1    
C26   CIRCULAR    0.4    0.0    0.0    0.0    1    
C27   CIRCULAR    0.4    0.0    0.0    0.0    1    
C28   RECT_OPEN    1.0    1.0    0.0    0.0    1    
C29   CIRCULAR    0.4    0.0    0.0    0.0    1    
C30   CIRCULAR    0.4    0.0    0.0    0.0    1    
C31   CIRCULAR    2.0    0.0    0.0    0.0    1    
C32   CIRCULAR    0.4    0.0    0.0    0.0    1    
C33   CIRCULAR    0.4    0.0    0.0    0.0    1    
C34   CIRCULAR    0.4    0.0    0.0    0.0    1    
C35   EGG    1.5    1.0    0.0    0.0    1    
C36   CIRCULAR    0.4    0.0    0.0    0.0    1    
C37   CIRCULAR    2.0    0.0    0.0    0.0    1    
C38   CIRCULAR    0.4    0.0    0.0    0.0    1    
C39   FORCE_MAIN    0.18    1.0    0.0    0.0    1    
C40   CIRCULAR    0.4    0.0    0.0    0.0    1    
C41   CIRCULAR    0.8    0.0    0.0    0.0    1    
C42   RECT_OPEN    1.0    1.0    0.0    0.0    1    
C43   CIRCULAR    0.8    0.0    0.0    0.0    1    
C44   CIRCULAR    1.0    0.0    0.0    0.0    1    
C45   CIRCULAR    0.8    0.0    0.0    0.0    1    
C46   CIRCULAR    0.8    0.0    0.0    0.0    1    
C47   CIRCULAR    0.4    0.0    0.0    0.0    1    
C48   CIRCULAR    0.4    0.0    0.0    0.0    1    
C49   CIRCULAR    0.315    0.0    0.0    0.0    1    
C50   CIRCULAR    0.4    0.0    0.0    0.0    1    
C51   CIRCULAR    0.4    0.0    0.0    0.0    1    
C52   CIRCULAR    0.4    0.0    0.0    0.0    1    
C53   CIRCULAR    0.4    0.0    0.0    0.0    1    
C54   CIRCULAR    1.0    0.0    0.0    0.0    1    
C55   CIRCULAR    0.4    0.0    0.0    0.0    1    
C56   CIRCULAR    0.4    0.0    0.0    0.0    1    
C57   CIRCULAR    0.315    0.0    0.0    0.0    1    
C58   CIRCULAR    0.315    0.0    0.0    0.0    1    
C59   CIRCULAR    0.315    0.0    0.0    0.0    1    
C60   CIRCULAR    0.4    0.0    0.0    0.0    1    
C61   CIRCULAR    0.4    0.0    0.0    0.0    1    
C62   CIRCULAR    0.4    0.0    0.0    0.0    1    
C63   CIRCULAR    0.4    0.0    0.0    0.0    1    
C64   CIRCULAR    0.4    0.0    0.0    0.0    1    
C65   CIRCULAR    0.4    0.0    0.0    0.0    1    
C66   CIRCULAR    0.4    0.0    0.0    0.0    1    
C67   RECT_OPEN    1.0    1.0    0.0    0.0    1    
C68   CIRCULAR    0.4    0.0    0.0    0.0    1    
C69   CIRCULAR    0.4    0.0    0.0    0.0    1    
C70   CIRCULAR    0.4    0.0    0.0    0.0    1    
C71   CIRCULAR    0.4    0.0    0.0    0.0    1    
C72   CIRCULAR    0.4    0.0    0.0    0.0    1    
C73   CIRCULAR    1.0    0.0    0.0    0.0    1    
C74   CIRCULAR    1.0    0.0    0.0    0.0    1    
W1   RECT_OPEN    1.0    1.0    0.0    0.0        
R1   RECT_CLOSED    2.0    2.0    0    0        

[LOSSES]
C1   0   0   0   NO   0
C2   0   0   0   NO   0
C3   0   0   0   NO   0
C4   0   0   0   NO   0
C5   0   0   0   NO   0
C6   0   0   0   NO   0
C7   0   0   0   NO   0
C8   0   0   0   NO   0
C9   0   0   0   NO   0
C10   0   0   0   NO   0
C11   0   0   0   NO   0
C12   0   0   0   NO   0
C13   0   0   0   NO   0
C14   0   0   0   NO   0
C15   0   0   0   NO   0
C16   0   0   0   NO   0
C17   0   0   0   NO   0
C18   0   0   0   NO   0
C19   0   0   0   NO   0
C20   0   0   0   NO   0
C21   0   0   0   NO   0
C22   0   0   0   NO   0
C23   0   0   0   NO   0
C24   0   0   0   NO   0
C25   0   0   0   NO   0
C26   0   0   0   NO   0
C27   0   0   0   NO   0
C28   0   0   0   NO   0
C29   0   0   0   NO   0
C30   0   0   0   NO   0
C31   0   0   0   NO   0
C32   0   0   0   NO   0
C33   0   0   0   NO   0
C34   0   0   0   NO   0
C35   0   0   0   NO   0
C36   0   0   0   NO   0
C37   0   0   0   NO   0
C38   0   0   0   NO   0
C39   0   0   0   NO   0
C40   0   0   0   NO   0
C41   0   0   0   NO   0
C42   0   0   0   NO   0
C43   0   0   0   NO   0
C44   0   0   0   NO   0
C45   0   0   0   NO   0
C46   0   0   0   NO   0
C47   0   0   0   NO   0
C48   0   0   0   NO   0
C49   0   0   0   NO   0
C50   0   0   0   NO   0
C51   0   0   0   NO   0
C52   0   0   0   NO   0
C53   0   0   0   NO   0
C54   0   0   0   NO   0
C55   0   0   0   NO   0
C56   0   0   0   NO   0
C57   0   0   0   NO   0
C58   0   0   0   NO   0
C59   0   0   0   NO   0
C60   0   0   0   NO   0
C61   0   0   0   NO   0
C62   0   0   0   NO   0
C63   0   0   0   NO   0
C64   0   0   0   NO   0
C65   0   0   0   NO   0
C66   0   0   0   NO   0
C67   0   0   0   NO   0
C68   0   0   0   NO   0
C69   0   0   0   NO   0
C70   0   0   0   NO   0
C71   0   0   0   NO   0
C72   0   0   0   NO   0
C73   0   0   0   NO   0
C74   0   0   0   NO   0

[INFLOWS]
J1    FLOW    INFLOW-5m    FLOW    1    1    0    WEEKEND_PATTERN

[DWF]
D1    FLOW    0.0001    DAILY_PATTERN MONTHLY_PATTERN HOURLY_PATTERN WEEKEND_PATTERN
J1    FLOW    0.0003    DAILY_PATTERN MONTHLY_PATTERN HOURLY_PATTERN WEEKEND_PATTERN
J10    FLOW    0.0003    DAILY_PATTERN MONTHLY_PATTERN HOURLY_PATTERN WEEKEND_PATTERN
J11    FLOW    0.0003    DAILY_PATTERN MONTHLY_PATTERN HOURLY_PATTERN WEEKEND_PATTERN
J12    FLOW    0.0003    DAILY_PATTERN MONTHLY_PATTERN HOURLY_PATTERN WEEKEND_PATTERN
J13    FLOW    0.0003    DAILY_PATTERN MONTHLY_PATTERN HOURLY_PATTERN WEEKEND_PATTERN
J14    FLOW    0.0003    DAILY_PATTERN MONTHLY_PATTERN HOURLY_PATTERN WEEKEND_PATTERN
J15    FLOW    0.0003    DAILY_PATTERN MONTHLY_PATTERN HOURLY_PATTERN WEEKEND_PATTERN
J16    FLOW    0.0003    DAILY_PATTERN MONTHLY_PATTERN HOURLY_PATTERN WEEKEND_PATTERN
J17    FLOW    0.0003    DAILY_PATTERN MONTHLY_PATTERN HOURLY_PATTERN WEEKEND_PATTERN
J18    FLOW    0.0003    DAILY_PATTERN MONTHLY_PATTERN HOURLY_PATTERN WEEKEND_PATTERN
J19    FLOW    0.0003    DAILY_PATTERN MONTHLY_PATTERN HOURLY_PATTERN WEEKEND_PATTERN
J2    FLOW    0.0003    DAILY_PATTERN MONTHLY_PATTERN HOURLY_PATTERN WEEKEND_PATTERN
J20    FLOW    0.0003    DAILY_PATTERN MONTHLY_PATTERN HOURLY_PATTERN WEEKEND_PATTERN
J21    FLOW    0.0003    DAILY_PATTERN MONTHLY_PATTERN HOURLY_PATTERN WEEKEND_PATTERN
J22    FLOW    0.0003    DAILY_PATTERN MONTHLY_PATTERN HOURLY_PATTERN WEEKEND_PATTERN
J23    FLOW    0.0003    DAILY_PATTERN MONTHLY_PATTERN HOURLY_PATTERN WEEKEND_PATTERN
J24    FLOW    0.0003    DAILY_PATTERN MONTHLY_PATTERN HOURLY_PATTERN WEEKEND_PATTERN
J25    FLOW    0.0003    DAILY_PATTERN MONTHLY_PATTERN HOURLY_PATTERN WEEKEND_PATTERN
J26    FLOW    0.0003    DAILY_PATTERN MONTHLY_PATTERN HOURLY_PATTERN WEEKEND_PATTERN
J27    FLOW    0.0003    DAILY_PATTERN MONTHLY_PATTERN HOURLY_PATTERN WEEKEND_PATTERN
J28    FLOW    0.0003    DAILY_PATTERN MONTHLY_PATTERN HOURLY_PATTERN WEEKEND_PATTERN
J29    FLOW    0.0003    DAILY_PATTERN MONTHLY_PATTERN HOURLY_PATTERN WEEKEND_PATTERN
J3    FLOW    0.0003    DAILY_PATTERN MONTHLY_PATTERN HOURLY_PATTERN WEEKEND_PATTERN
J30    FLOW    0.0003    DAILY_PATTERN MONTHLY_PATTERN HOURLY_PATTERN WEEKEND_PATTERN
J31    FLOW    0.0003    DAILY_PATTERN MONTHLY_PATTERN HOURLY_PATTERN WEEKEND_PATTERN
J32    FLOW    0.0003    DAILY_PATTERN MONTHLY_PATTERN HOURLY_PATTERN WEEKEND_PATTERN
J33    FLOW    0.0003    DAILY_PATTERN MONTHLY_PATTERN HOURLY_PATTERN WEEKEND_PATTERN
J34    FLOW    0.0003    DAILY_PATTERN MONTHLY_PATTERN HOURLY_PATTERN WEEKEND_PATTERN